5819
  -OEChem-08302404093D

 35 36  0     1  0  0  0  0  0999 V2000
    4.3354   20.0264   28.8161 I  0  0  0  0  0  0  0  0  0  0  0  0
    4.8240   18.1883   34.6151 I  0  0  0  0  0  0  0  0  0  0  0  0
   10.7840   20.4963   31.6345 I  0  0  0  0  0  0  0  0  0  0  0  0
    6.0684   24.0570   33.1625 I  0  0  0  0  0  0  0  0  0  0  0  0
    5.6285   18.9268   31.5700 O  0  0  0  0  0  0  0  0  0  0  0  0
    0.9892   22.8983   31.4672 O  0  0  0  0  0  0  0  0  0  0  0  0
   -1.2054   22.5684   30.9976 O  0  0  0  0  0  0  0  0  0  0  0  0
    9.1027   23.0875   32.5973 O  0  0  0  0  0  0  0  0  0  0  0  0
   -1.5040   21.3527   33.4397 N  0  0  0  0  0  0  0  0  0  0  0  0
    0.1149   19.8777   32.3359 C  0  0  0  0  0  0  0  0  0  0  0  0
   -0.1844   21.3070   32.8139 C  0  0  1  0  0  0  0  0  0  0  0  0
    1.5907   19.6237   32.1311 C  0  0  0  0  0  0  0  0  0  0  0  0
    2.3488   19.1458   33.1871 C  0  0  0  0  0  0  0  0  0  0  0  0
    2.1555   19.8737   30.8915 C  0  0  0  0  0  0  0  0  0  0  0  0
    4.2950   19.1577   31.7555 C  0  0  0  0  0  0  0  0  0  0  0  0
    3.5173   19.6388   30.7023 C  0  0  0  0  0  0  0  0  0  0  0  0
    3.7107   18.9111   32.9978 C  0  0  0  0  0  0  0  0  0  0  0  0
   -0.2142   22.2995   31.6643 C  0  0  0  0  0  0  0  0  0  0  0  0
    6.4991   19.9694   31.8277 C  0  0  0  0  0  0  0  0  0  0  0  0
    5.9915   21.1840   32.2561 C  0  0  0  0  0  0  0  0  0  0  0  0
    7.8583   19.7746   31.6512 C  0  0  0  0  0  0  0  0  0  0  0  0
    8.7367   20.8265   31.9110 C  0  0  0  0  0  0  0  0  0  0  0  0
    6.8700   22.2359   32.5157 C  0  0  0  0  0  0  0  0  0  0  0  0
    8.2425   22.0572   32.3431 C  0  0  0  0  0  0  0  0  0  0  0  0
   -0.4267   19.6566   31.4058 H  0  0  0  0  0  0  0  0  0  0  0  0
   -0.2536   19.1448   33.0674 H  0  0  0  0  0  0  0  0  0  0  0  0
    0.5451   21.6499   33.5568 H  0  0  0  0  0  0  0  0  0  0  0  0
    1.8808   18.9609   34.1508 H  0  0  0  0  0  0  0  0  0  0  0  0
    1.5376   20.2459   30.0782 H  0  0  0  0  0  0  0  0  0  0  0  0
   -1.5190   20.7338   34.2498 H  0  0  0  0  0  0  0  0  0  0  0  0
   -2.2051   20.9848   32.7968 H  0  0  0  0  0  0  0  0  0  0  0  0
    4.9342   21.3729   32.4051 H  0  0  0  0  0  0  0  0  0  0  0  0
    8.2210   18.8072   31.3137 H  0  0  0  0  0  0  0  0  0  0  0  0
    0.9588   23.5467   30.7318 H  0  0  0  0  0  0  0  0  0  0  0  0
   10.0097   22.7821   32.4237 H  0  0  0  0  0  0  0  0  0  0  0  0
  1 16  1  0  0  0  0
  2 17  1  0  0  0  0
  3 22  1  0  0  0  0
  4 23  1  0  0  0  0
  5 15  1  0  0  0  0
  5 19  1  0  0  0  0
  6 18  1  0  0  0  0
  6 34  1  0  0  0  0
  7 18  2  0  0  0  0
  8 24  1  0  0  0  0
  8 35  1  0  0  0  0
  9 11  1  0  0  0  0
  9 30  1  0  0  0  0
  9 31  1  0  0  0  0
 10 11  1  0  0  0  0
 10 12  1  0  0  0  0
 10 25  1  0  0  0  0
 10 26  1  0  0  0  0
 11 18  1  0  0  0  0
 11 27  1  0  0  0  0
 12 13  2  0  0  0  0
 12 14  1  0  0  0  0
 13 17  1  0  0  0  0
 13 28  1  0  0  0  0
 14 16  2  0  0  0  0
 14 29  1  0  0  0  0
 15 16  1  0  0  0  0
 15 17  2  0  0  0  0
 19 20  2  0  0  0  0
 19 21  1  0  0  0  0
 20 23  1  0  0  0  0
 20 32  1  0  0  0  0
 21 22  2  0  0  0  0
 21 33  1  0  0  0  0
 22 24  1  0  0  0  0
 23 24  2  0  0  0  0
M  END
> <PUBCHEM_COMPOUND_CID>
5819

> <PUBCHEM_CONFORMER_RMSD>
0.8

> <PUBCHEM_CONFORMER_DIVERSEORDER>
1
7
14
22
4
5
20
21
11
9
16
12
10
2
19
23
17
13
6
15
18
8
3

> <PUBCHEM_MMFF94_PARTIAL_CHARGES>
32
1 -0.08
10 0.14
11 0.33
12 -0.14
13 -0.15
14 -0.15
15 0.08
16 0.08
17 0.08
18 0.66
19 0.08
2 -0.08
20 -0.15
21 -0.15
22 0.08
23 0.08
24 0.08
28 0.15
29 0.15
3 -0.08
30 0.36
31 0.36
32 0.15
33 0.15
34 0.5
35 0.45
4 -0.08
5 -0.17
6 -0.65
7 -0.57
8 -0.53
9 -0.99

> <PUBCHEM_EFFECTIVE_ROTOR_COUNT>
5

> <PUBCHEM_PHARMACOPHORE_FEATURES>
13
1 1 hydrophobe
1 2 hydrophobe
1 3 hydrophobe
1 4 hydrophobe
1 5 acceptor
1 6 acceptor
1 7 acceptor
1 8 donor
1 9 cation
1 9 donor
3 6 7 18 anion
6 12 13 14 15 16 17 rings
6 19 20 21 22 23 24 rings

> <PUBCHEM_HEAVY_ATOM_COUNT>
24

> <PUBCHEM_ATOM_DEF_STEREO_COUNT>
1

> <PUBCHEM_ATOM_UDEF_STEREO_COUNT>
0

> <PUBCHEM_BOND_DEF_STEREO_COUNT>
0

> <PUBCHEM_BOND_UDEF_STEREO_COUNT>
0

> <PUBCHEM_ISOTOPIC_ATOM_COUNT>
0

> <PUBCHEM_COMPONENT_COUNT>
1

> <PUBCHEM_CACTVS_TAUTO_COUNT>
2

> <PUBCHEM_CONFORMER_ID>
000016BB00000001

> <PUBCHEM_MMFF94_ENERGY>
69.0987

> <PUBCHEM_FEATURE_SELFOVERLAP>
66.029

> <PUBCHEM_SHAPE_FINGERPRINT>
10006869 2 17972020454231449901
10165383 225 17821449036861445606
11763715 3 17399250023354042990
12236239 1 17275107258428813414
12596602 18 15575007199035956725
12633257 1 17532081877360907868
12788726 201 18340488838556113552
13103583 49 14562539453318960509
13149001 5 14763768871103977471
13402501 40 18410011026814479673
13544653 18 10953457423204011331
13583140 156 18341904021015457815
14178342 30 17313115167698377131
14279260 333 18267584616480956702
14466204 15 18410004417175816040
14739800 52 18189041024129029577
14790565 3 17476075104970475696
15209294 21 18040434369766669999
15238133 3 18335707169802945492
15295992 7 18336552736593030810
15475509 84 17393590398934442025
19930381 70 16540721743423659219
20511986 3 17274528937129973730
20723712 36 16950291693107653143
20739085 24 16733550386173254683
21033648 29 17967251983981360665
21279426 13 18411422804598024524
21475661 188 18408880758920368945
21709351 56 18059853999527796454
23227448 37 18342173418791402519
23402539 116 13686303469704314790
23419403 2 15232405212402377215
2838139 119 18202561757112565429
3633792 109 16056052246871964262
392239 28 18115322171491007707
4325135 7 17989207058514870511
469060 322 16038016270257117290
5081480 168 16627182489199555045
57724786 102 18190180268948023868
5895379 119 17626098646792586137
5951187 136 17262998057784145413
59755656 520 18186519920997011938
633830 44 18335411413822767622
9981440 41 16905225185956029032

> <PUBCHEM_SHAPE_MULTIPOLES>
513.19
11.91
3.12
2.21
1
1.93
-1.06
6.08
0.27
0.34
1.7
-0.58
-1.26
1.12

> <PUBCHEM_SHAPE_SELFOVERLAP>
1008.297

> <PUBCHEM_SHAPE_VOLUME>
318.8

> <PUBCHEM_COORDINATE_TYPE>
2
5
10

$$$$
